<?xml version="1.0"?>
<nodes>
    <node type="priority" y="0" x="-500" id="n1"/>
    <node type="traffic_light" y="0" x="-250" id="n2"/>
    <node type="traffic_light" y="200" x="-150" id="n3"/>
    <node y="0" x="0" id="n4"/>
    <node y="250" x="150" id="n5"/>
</nodes>