<?xml version="1.0" encoding="UTF-8"?>

<!-- generated on 2021-11-30 20:33:11 by Eclipse SUMO netconvert Version 1.11.0
<configuration xmlns:xsi="http://www.w3.org/2001/XMLSchema-instance" xsi:noNamespaceSchemaLocation="http://sumo.dlr.de/xsd/netconvertConfiguration.xsd">

    <input>
        <osm-files value="map.osm"/>
    </input>

    <output>
        <output-file value="map.net.xml"/>
    </output>

    <projection>
        <proj.utm value="true"/>
    </projection>

    <report>
        <aggregate-warnings value="5"/>
    </report>

</configuration>
-->

<net version="1.9" junctionCornerDetail="5" limitTurnSpeed="5.50" xmlns:xsi="http://www.w3.org/2001/XMLSchema-instance" xsi:noNamespaceSchemaLocation="http://sumo.dlr.de/xsd/net_file.xsd">

    <location netOffset="-707466.03,-1407729.31" convBoundary="0.00,0.00,5564.18,9530.29" origBoundary="100.911138,12.726815,100.962001,12.813246" projParameter="+proj=utm +zone=47 +ellps=WGS84 +datum=WGS84 +units=m +no_defs"/>

    <type id="highway.bridleway" priority="1" numLanes="1" speed="2.78" allow="pedestrian" oneway="1" width="2.00"/>
    <type id="highway.bus_guideway" priority="1" numLanes="1" speed="27.78" allow="bus" oneway="1"/>
    <type id="highway.cycleway" priority="1" numLanes="1" speed="8.33" allow="bicycle" oneway="0" width="1.00"/>
    <type id="highway.footway" priority="1" numLanes="1" speed="2.78" allow="pedestrian" oneway="1" width="2.00"/>
    <type id="highway.ford" priority="1" numLanes="1" speed="2.78" allow="army" oneway="0"/>
    <type id="highway.living_street" priority="2" numLanes="1" speed="2.78" disallow="tram rail_urban rail rail_electric rail_fast ship" oneway="0"/>
    <type id="highway.motorway" priority="14" numLanes="2" speed="39.44" allow="private emergency authority army vip passenger hov taxi bus coach delivery truck trailer motorcycle evehicle custom1 custom2" oneway="1"/>
    <type id="highway.motorway_link" priority="9" numLanes="1" speed="22.22" allow="private emergency authority army vip passenger hov taxi bus coach delivery truck trailer motorcycle evehicle custom1 custom2" oneway="1"/>
    <type id="highway.path" priority="1" numLanes="1" speed="2.78" allow="pedestrian bicycle" oneway="0" width="2.00"/>
    <type id="highway.pedestrian" priority="1" numLanes="1" speed="2.78" allow="pedestrian" oneway="1" width="2.00"/>
    <type id="highway.primary" priority="12" numLanes="2" speed="27.78" disallow="tram rail_urban rail rail_electric rail_fast ship" oneway="0"/>
    <type id="highway.primary_link" priority="7" numLanes="1" speed="22.22" disallow="tram rail_urban rail rail_electric rail_fast ship" oneway="0"/>
    <type id="highway.raceway" priority="15" numLanes="2" speed="83.33" allow="vip" oneway="0"/>
    <type id="highway.residential" priority="3" numLanes="1" speed="13.89" disallow="tram rail_urban rail rail_electric rail_fast ship" oneway="0"/>
    <type id="highway.secondary" priority="11" numLanes="1" speed="27.78" disallow="tram rail_urban rail rail_electric rail_fast ship" oneway="0"/>
    <type id="highway.secondary_link" priority="6" numLanes="1" speed="22.22" disallow="tram rail_urban rail rail_electric rail_fast ship" oneway="0"/>
    <type id="highway.service" priority="1" numLanes="1" speed="5.56" allow="pedestrian delivery bicycle" oneway="0"/>
    <type id="highway.stairs" priority="1" numLanes="1" speed="1.39" allow="pedestrian" oneway="1" width="2.00"/>
    <type id="highway.step" priority="1" numLanes="1" speed="1.39" allow="pedestrian" oneway="1" width="2.00"/>
    <type id="highway.steps" priority="1" numLanes="1" speed="1.39" allow="pedestrian" oneway="1" width="2.00"/>
    <type id="highway.tertiary" priority="10" numLanes="1" speed="22.22" disallow="tram rail_urban rail rail_electric rail_fast ship" oneway="0"/>
    <type id="highway.tertiary_link" priority="5" numLanes="1" speed="22.22" disallow="tram rail_urban rail rail_electric rail_fast ship" oneway="0"/>
    <type id="highway.track" priority="1" numLanes="1" speed="5.56" allow="pedestrian motorcycle moped bicycle" oneway="0"/>
    <type id="highway.trunk" priority="13" numLanes="2" speed="27.78" disallow="pedestrian bicycle tram rail_urban rail rail_electric rail_fast ship" oneway="0"/>
    <type id="highway.trunk_link" priority="8" numLanes="1" speed="22.22" disallow="pedestrian bicycle tram rail_urban rail rail_electric rail_fast ship" oneway="0"/>
    <type id="highway.unclassified" priority="4" numLanes="1" speed="13.89" disallow="tram rail_urban rail rail_electric rail_fast ship" oneway="0"/>
    <type id="highway.unsurfaced" priority="1" numLanes="1" speed="8.33" disallow="tram rail_urban rail rail_electric rail_fast ship" oneway="0"/>
    <type id="railway.highspeed" priority="21" numLanes="1" speed="69.44" allow="rail_fast" oneway="1"/>
    <type id="railway.light_rail" priority="19" numLanes="1" speed="27.78" allow="rail_urban" oneway="1"/>
    <type id="railway.preserved" priority="16" numLanes="1" speed="27.78" allow="rail" oneway="1"/>
    <type id="railway.rail" priority="20" numLanes="1" speed="44.44" allow="rail" oneway="1"/>
    <type id="railway.subway" priority="18" numLanes="1" speed="27.78" allow="rail_urban" oneway="1"/>
    <type id="railway.tram" priority="17" numLanes="1" speed="13.89" allow="tram" oneway="1"/>

    <edge id=":1000290449_0" function="internal">
        <lane id=":1000290449_0_0" index="0" disallow="tram rail_urban rail rail_electric rail_fast ship" speed="3.65" length="4.67" shape="323.31,5686.97 321.95,5686.51 321.35,5685.85 321.53,5684.97 322.47,5683.88"/>
    </edge>
    <edge id=":1027363621_0" function="internal">
        <lane id=":1027363621_0_0" index="0" allow="pedestrian delivery bicycle" speed="5.05" length="4.99" shape="2833.91,4225.46 2833.55,4224.14 2832.85,4223.25 2831.82,4222.79 2830.45,4222.75"/>
    </edge>
    <edge id=":1027363621_1" function="internal">
        <lane id=":1027363621_1_0" index="0" allow="pedestrian delivery bicycle" speed="5.56" length="9.99" shape="2833.91,4225.46 2833.94,4222.70 2834.80,4220.58 2836.50,4219.08 2839.03,4218.20"/>
    </edge>
    <edge id=":1027363621_2" function="internal">
        <lane id=":1027363621_2_0" index="0" allow="pedestrian delivery bicycle" speed="3.65" length="4.67" shape="2833.91,4225.46 2834.55,4224.17 2835.29,4223.67 2836.14,4223.97 2837.08,4225.06"/>
    </edge>
    <edge id=":1027363621_3" function="internal">
        <lane id=":1027363621_3_0" index="0" allow="pedestrian delivery bicycle" speed="5.18" length="5.07" shape="2839.63,4221.34 2838.37,4221.79 2837.52,4222.55 2837.09,4223.65 2837.08,4225.06"/>
    </edge>
    <edge id=":1027363621_4" function="internal">
        <lane id=":1027363621_4_0" index="0" allow="pedestrian delivery bicycle" speed="5.56" length="9.29" shape="2839.63,4221.34 2830.45,4222.75"/>
    </edge>
    <edge id=":1027363621_5" function="internal">
        <lane id=":1027363621_5_0" index="0" allow="pedestrian delivery bicycle" speed="3.65" length="4.67" shape="2839.63,4221.34 2838.30,4220.78 2837.76,4220.07 2838.00,4219.21 2839.03,4218.20"/>
    </edge>
    <edge id=":1027363621_6" function="internal">
        <lane id=":1027363621_6_0" index="0" allow="pedestrian delivery bicycle" speed="5.56" length="9.06" shape="2830.08,4219.58 2839.03,4218.20"/>
    </edge>
    <edge id=":1027363621_7" function="internal">
        <lane id=":1027363621_7_0" index="0" allow="pedestrian delivery bicycle" speed="5.56" length="10.13" shape="2830.08,4219.58 2832.85,4219.64 2834.94,4220.58 2836.35,4222.39 2837.08,4225.06"/>
    </edge>
    <edge id=":1027363621_8" function="internal">
        <lane id=":1027363621_8_0" index="0" allow="pedestrian delivery bicycle" speed="3.65" length="4.67" shape="2830.08,4219.58 2831.36,4220.23 2831.86,4220.98 2831.55,4221.82 2830.45,4222.75"/>
    </edge>
    <edge id=":1027363754_0" function="internal">
        <lane id=":1027363754_0_0" index="0" disallow="tram rail_urban rail rail_electric rail_fast ship" speed="22.22" length="9.15" shape="2688.17,4239.10 2679.07,4240.11"/>
    </edge>
    <edge id=":1027363754_1" function="internal">
        <lane id=":1027363754_1_0" index="0" allow="pedestrian delivery bicycle" speed="6.84" length="4.90" shape="2688.17,4239.10 2685.35,4238.93 2683.49,4238.01"/>
    </edge>
    <edge id=":1027363754_7" function="internal">
        <lane id=":1027363754_7_0" index="0" allow="pedestrian delivery bicycle" speed="6.84" length="5.36" shape="2683.49,4238.01 2683.28,4237.91 2681.96,4236.01 2681.38,4233.25"/>
    </edge>
    <edge id=":1027363754_2" function="internal">
        <lane id=":1027363754_2_0" index="0" allow="pedestrian delivery bicycle" speed="5.02" length="5.03" shape="2684.57,4233.05 2684.86,4234.40 2685.50,4235.33 2686.52,4235.83 2687.90,4235.91"/>
    </edge>
    <edge id=":1027363754_3" function="internal">
        <lane id=":1027363754_3_0" index="0" allow="pedestrian delivery bicycle" speed="7.01" length="10.05" shape="2684.57,4233.05 2684.38,4235.83 2683.40,4237.93 2681.63,4239.36 2679.07,4240.11"/>
    </edge>
    <edge id=":1027363754_4" function="internal">
        <lane id=":1027363754_4_0" index="0" allow="pedestrian delivery bicycle" speed="3.65" length="4.67" shape="2684.57,4233.05 2683.85,4234.29 2683.08,4234.74 2682.26,4234.39 2681.38,4233.25"/>
    </edge>
    <edge id=":1027363754_5" function="internal">
        <lane id=":1027363754_5_0" index="0" allow="pedestrian delivery bicycle" speed="5.23" length="5.16" shape="2678.63,4236.94 2679.91,4236.55 2680.80,4235.81 2681.29,4234.71 2681.38,4233.25"/>
    </edge>
    <edge id=":1027363754_6" function="internal">
        <lane id=":1027363754_6_0" index="0" disallow="tram rail_urban rail rail_electric rail_fast ship" speed="22.22" length="9.32" shape="2678.63,4236.94 2687.90,4235.91"/>
    </edge>
    <edge id=":1027363868_0" function="internal">
        <lane id=":1027363868_0_0" index="0" allow="pedestrian delivery bicycle" speed="5.45" length="5.16" shape="2405.92,4277.90 2405.62,4276.46 2405.00,4275.39 2404.07,4274.70 2402.82,4274.37"/>
    </edge>
    <edge id=":1027363868_1" function="internal">
        <lane id=":1027363868_1_0" index="0" allow="pedestrian delivery bicycle" speed="6.90" length="9.98" shape="2405.92,4277.90 2406.06,4275.18 2407.03,4273.13 2408.83,4271.74 2411.45,4271.02"/>
    </edge>
    <edge id=":1027363868_2" function="internal">
        <lane id=":1027363868_2_0" index="0" allow="pedestrian delivery bicycle" speed="3.65" length="4.67" shape="2405.92,4277.90 2406.61,4276.63 2407.37,4276.16 2408.21,4276.49 2409.11,4277.61"/>
    </edge>
    <edge id=":1027363868_3" function="internal">
        <lane id=":1027363868_3_0" index="0" allow="pedestrian delivery bicycle" speed="5.08" length="4.96" shape="2411.86,4274.20 2410.55,4274.56 2409.66,4275.24 2409.18,4276.26 2409.11,4277.61"/>
    </edge>
    <edge id=":1027363868_4" function="internal">
        <lane id=":1027363868_4_0" index="0" disallow="tram rail_urban rail rail_electric rail_fast ship" speed="22.22" length="9.07" shape="2411.86,4274.20 2409.19,4274.53 2407.34,4274.67 2405.50,4274.61 2402.82,4274.37"/>
    </edge>
    <edge id=":1027363868_5" function="internal">
        <lane id=":1027363868_5_0" index="0" disallow="tram rail_urban rail rail_electric rail_fast ship" speed="22.22" length="8.35" shape="2403.14,4271.19 2405.60,4271.41 2407.30,4271.46 2408.99,4271.33 2411.45,4271.02"/>
    </edge>
    <edge id=":1027363868_6" function="internal">
        <lane id=":1027363868_6_0" index="0" allow="pedestrian delivery bicycle" speed="7.19" length="4.69" shape="2403.14,4271.19 2405.55,4271.79 2407.35,4273.06"/>
    </edge>
    <edge id=":1027363868_7" function="internal">
        <lane id=":1027363868_7_0" index="0" allow="pedestrian delivery bicycle" speed="7.19" length="4.94" shape="2407.35,4273.06 2408.54,4275.00 2409.11,4277.61"/>
    </edge>
    <edge id=":1298169245_0" function="internal">
        <lane id=":1298169245_0_0" index="0" allow="pedestrian delivery bicycle" speed="5.56" length="9.13" shape="2851.62,4219.31 2842.61,4220.77"/>
    </edge>
    <edge id=":1298169245_1" function="internal">
        <lane id=":1298169245_1_0" index="0" allow="pedestrian delivery bicycle" speed="5.56" length="10.04" shape="2851.62,4219.31 2848.99,4219.26 2846.91,4218.35 2845.38,4216.58 2844.39,4213.95"/>
    </edge>
    <edge id=":1298169245_2" function="internal">
        <lane id=":1298169245_2_0" index="0" allow="pedestrian delivery bicycle" speed="3.65" length="4.67" shape="2851.62,4219.31 2850.33,4218.67 2849.83,4217.93 2850.12,4217.09 2851.20,4216.14"/>
    </edge>
    <edge id=":1298169245_3" function="internal">
        <lane id=":1298169245_3_0" index="0" allow="pedestrian delivery bicycle" speed="5.31" length="5.25" shape="2847.51,4213.23 2848.03,4214.64 2848.82,4215.60 2849.88,4216.10 2851.20,4216.14"/>
    </edge>
    <edge id=":1298169245_4" function="internal">
        <lane id=":1298169245_4_0" index="0" allow="pedestrian delivery bicycle" speed="5.56" length="10.36" shape="2847.51,4213.23 2847.76,4216.07 2847.02,4218.28 2845.30,4219.85 2842.61,4220.77"/>
    </edge>
    <edge id=":1298169245_5" function="internal">
        <lane id=":1298169245_5_0" index="0" allow="pedestrian delivery bicycle" speed="3.65" length="4.67" shape="2847.51,4213.23 2847.00,4214.58 2846.32,4215.15 2845.45,4214.94 2844.39,4213.95"/>
    </edge>
    <edge id=":1298169245_6" function="internal">
        <lane id=":1298169245_6_0" index="0" allow="pedestrian delivery bicycle" speed="5.00" length="5.05" shape="2842.00,4217.63 2843.32,4217.18 2844.16,4216.41 2844.51,4215.34 2844.39,4213.95"/>
    </edge>
    <edge id=":1298169245_7" function="internal">
        <lane id=":1298169245_7_0" index="0" allow="pedestrian delivery bicycle" speed="5.56" length="9.32" shape="2842.00,4217.63 2851.20,4216.14"/>
    </edge>
    <edge id=":1298169245_8" function="internal">
        <lane id=":1298169245_8_0" index="0" allow="pedestrian delivery bicycle" speed="3.65" length="4.67" shape="2842.00,4217.63 2843.33,4218.19 2843.88,4218.90 2843.63,4219.76 2842.61,4220.77"/>
    </edge>
    <edge id=":1298169248_0" function="internal">
        <lane id=":1298169248_0_0" index="0" allow="pedestrian delivery bicycle" speed="5.56" length="12.01" shape="3385.87,4482.05 3389.53,4482.03 3391.58,4483.18 3392.00,4485.48 3390.81,4488.94"/>
    </edge>
    <edge id=":1298169248_1" function="internal">
        <lane id=":1298169248_1_0" index="0" allow="pedestrian delivery bicycle" speed="4.00" length="4.00" shape="3387.94,4487.52 3388.34,4486.36 3388.20,4485.60 3387.52,4485.22 3386.29,4485.22"/>
    </edge>
    <edge id=":1298169249_0" function="internal">
        <lane id=":1298169249_0_0" index="0" allow="pedestrian delivery bicycle" speed="5.00" length="5.05" shape="2828.52,4165.09 2827.55,4164.08 2826.51,4163.64 2825.38,4163.77 2824.18,4164.46"/>
    </edge>
    <edge id=":1298169249_1" function="internal">
        <lane id=":1298169249_1_0" index="0" allow="pedestrian delivery bicycle" speed="5.56" length="9.89" shape="2828.52,4165.09 2827.18,4162.64 2826.79,4160.33 2827.33,4158.15 2828.80,4156.11"/>
    </edge>
    <edge id=":1298169249_2" function="internal">
        <lane id=":1298169249_2_0" index="0" allow="pedestrian delivery bicycle" speed="3.65" length="4.67" shape="2828.52,4165.09 2828.47,4163.65 2828.89,4162.86 2829.77,4162.72 2831.12,4163.23"/>
    </edge>
    <edge id=":1298169249_3" function="internal">
        <lane id=":1298169249_3_0" index="0" allow="pedestrian delivery bicycle" speed="5.51" length="5.36" shape="2831.08,4158.36 2830.33,4159.42 2830.09,4160.59 2830.35,4161.86 2831.12,4163.23"/>
    </edge>
    <edge id=":1298169249_4" function="internal">
        <lane id=":1298169249_4_0" index="0" allow="pedestrian delivery bicycle" speed="5.56" length="9.23" shape="2831.08,4158.36 2829.15,4160.30 2827.78,4161.58 2826.33,4162.77 2824.18,4164.46"/>
    </edge>
    <edge id=":1298169249_5" function="internal">
        <lane id=":1298169249_5_0" index="0" allow="pedestrian delivery bicycle" speed="3.65" length="4.67" shape="2831.08,4158.36 2829.67,4158.65 2828.82,4158.37 2828.53,4157.53 2828.80,4156.11"/>
    </edge>
    <edge id=":1298169249_6" function="internal">
        <lane id=":1298169249_6_0" index="0" allow="pedestrian delivery bicycle" speed="5.56" length="8.82" shape="2822.20,4161.94 2824.26,4160.33 2825.64,4159.19 2826.95,4157.97 2828.80,4156.11"/>
    </edge>
    <edge id=":1298169249_7" function="internal">
        <lane id=":1298169249_7_0" index="0" allow="pedestrian delivery bicycle" speed="5.56" length="10.37" shape="2822.20,4161.94 2824.68,4160.52 2827.00,4160.26 2829.14,4161.16 2831.12,4163.23"/>
    </edge>
    <edge id=":1298169249_8" function="internal">
        <lane id=":1298169249_8_0" index="0" allow="pedestrian delivery bicycle" speed="3.65" length="4.67" shape="2822.20,4161.94 2823.64,4161.83 2824.45,4162.22 2824.63,4163.09 2824.18,4164.46"/>
    </edge>
    <edge id=":1298169251_0" function="internal">
        <lane id=":1298169251_0_0" index="0" allow="pedestrian delivery bicycle" speed="5.56" length="6.72" shape="3251.77,4169.97 3250.09,4169.05 3248.76,4168.83 3247.33,4169.03 3245.35,4169.37"/>
    </edge>
    <edge id=":1298169251_1" function="internal">
        <lane id=":1298169251_1_0" index="0" allow="pedestrian delivery bicycle" speed="5.56" length="8.99" shape="3251.77,4169.97 3249.74,4168.35 3248.68,4166.87 3248.05,4165.07 3247.30,4162.51"/>
    </edge>
    <edge id=":1298169251_2" function="internal">
        <lane id=":1298169251_2_0" index="0" allow="pedestrian delivery bicycle" speed="3.65" length="4.67" shape="3251.77,4169.97 3251.23,4168.63 3251.36,4167.75 3252.15,4167.32 3253.59,4167.34"/>
    </edge>
    <edge id=":1298169251_3" function="internal">
        <lane id=":1298169251_3_0" index="0" allow="pedestrian delivery bicycle" speed="5.56" length="6.87" shape="3250.36,4161.54 3250.90,4163.52 3251.32,4164.92 3252.07,4166.09 3253.59,4167.34"/>
    </edge>
    <edge id=":1298169251_4" function="internal">
        <lane id=":1298169251_4_0" index="0" allow="pedestrian delivery bicycle" speed="5.56" length="11.09" shape="3250.36,4161.54 3250.86,4164.62 3250.19,4166.95 3248.36,4168.54 3245.35,4169.37"/>
    </edge>
    <edge id=":1298169251_5" function="internal">
        <lane id=":1298169251_5_0" index="0" allow="pedestrian delivery bicycle" speed="3.65" length="4.67" shape="3250.36,4161.54 3249.95,4162.93 3249.31,4163.55 3248.43,4163.41 3247.30,4162.51"/>
    </edge>
    <edge id=":1298169251_6" function="internal">
        <lane id=":1298169251_6_0" index="0" allow="pedestrian delivery bicycle" speed="4.87" length="5.23" shape="3244.94,4166.19 3246.36,4165.80 3247.23,4165.06 3247.54,4163.96 3247.30,4162.51"/>
    </edge>
    <edge id=":1298169251_7" function="internal">
        <lane id=":1298169251_7_0" index="0" allow="pedestrian delivery bicycle" speed="5.56" length="9.08" shape="3244.94,4166.19 3247.62,4165.79 3249.54,4165.63 3251.33,4166.04 3253.59,4167.34"/>
    </edge>
    <edge id=":1298169251_8" function="internal">
        <lane id=":1298169251_8_0" index="0" allow="pedestrian delivery bicycle" speed="3.65" length="4.67" shape="3244.94,4166.19 3246.24,4166.84 3246.73,4167.58 3246.44,4168.42 3245.35,4169.37"/>
    </edge>
    <edge id=":1298169252_0" function="internal">
        <lane id=":1298169252_0_0" index="0" allow="pedestrian delivery bicycle" speed="5.56" length="8.94" shape="2674.06,4128.09 2673.82,4125.45 2673.61,4123.65 2673.32,4121.85 2672.83,4119.25"/>
    </edge>
    <edge id=":1298169252_1" function="internal">
        <lane id=":1298169252_1_0" index="0" allow="pedestrian delivery bicycle" speed="5.56" length="10.27" shape="2674.06,4128.09 2674.21,4125.27 2675.22,4123.20 2677.11,4121.86 2679.87,4121.27"/>
    </edge>
    <edge id=":1298169252_2" function="internal">
        <lane id=":1298169252_2_0" index="0" allow="pedestrian delivery bicycle" speed="3.65" length="4.67" shape="2674.06,4128.09 2674.75,4126.83 2675.51,4126.35 2676.34,4126.68 2677.25,4127.80"/>
    </edge>
    <edge id=":1298169252_3" function="internal">
        <lane id=":1298169252_3_0" index="0" allow="pedestrian delivery bicycle" speed="5.02" length="5.03" shape="2680.09,4124.46 2678.74,4124.75 2677.82,4125.41 2677.32,4126.42 2677.25,4127.80"/>
    </edge>
    <edge id=":1298169252_4" function="internal">
        <lane id=":1298169252_4_0" index="0" allow="pedestrian delivery bicycle" speed="5.56" length="9.94" shape="2680.09,4124.46 2677.32,4124.30 2675.19,4123.37 2673.69,4121.69 2672.83,4119.25"/>
    </edge>
    <edge id=":1298169252_5" function="internal">
        <lane id=":1298169252_5_0" index="0" allow="pedestrian delivery bicycle" speed="3.65" length="4.67" shape="2680.09,4124.46 2678.84,4123.75 2678.39,4122.98 2678.73,4122.15 2679.87,4121.27"/>
    </edge>
    <edge id=":1298169252_6" function="internal">
        <lane id=":1298169252_6_0" index="0" allow="pedestrian delivery bicycle" speed="5.35" length="5.23" shape="2675.97,4118.64 2676.42,4119.88 2677.22,4120.73 2678.37,4121.19 2679.87,4121.27"/>
    </edge>
    <edge id=":1298169252_7" function="internal">
        <lane id=":1298169252_7_0" index="0" allow="pedestrian delivery bicycle" speed="5.56" length="9.26" shape="2675.97,4118.64 2676.48,4121.34 2676.78,4123.20 2676.99,4125.07 2677.25,4127.80"/>
    </edge>
    <edge id=":1298169252_8" function="internal">
        <lane id=":1298169252_8_0" index="0" allow="pedestrian delivery bicycle" speed="3.65" length="4.67" shape="2675.97,4118.64 2675.41,4119.97 2674.70,4120.51 2673.84,4120.27 2672.83,4119.25"/>
    </edge>
    <edge id=":1298169255_0" function="internal">
        <lane id=":1298169255_0_0" index="0" allow="pedestrian delivery bicycle" speed="5.05" length="5.08" shape="2935.76,4222.76 2935.37,4221.41 2934.66,4220.50 2933.61,4220.06 2932.23,4220.07"/>
    </edge>
    <edge id=":1298169255_1" function="internal">
        <lane id=":1298169255_1_0" index="0" allow="pedestrian delivery bicycle" speed="5.56" length="10.34" shape="2935.76,4222.76 2935.77,4219.91 2936.71,4217.79 2938.56,4216.38 2941.32,4215.70"/>
    </edge>
    <edge id=":1298169255_2" function="internal">
        <lane id=":1298169255_2_0" index="0" allow="pedestrian delivery bicycle" speed="3.65" length="4.67" shape="2935.76,4222.76 2936.39,4221.46 2937.12,4220.96 2937.97,4221.25 2938.93,4222.33"/>
    </edge>
    <edge id=":1298169255_3" function="internal">
        <lane id=":1298169255_3_0" index="0" allow="pedestrian delivery bicycle" speed="5.00" length="5.04" shape="2941.64,4218.88 2940.29,4219.21 2939.39,4219.90 2938.94,4220.94 2938.93,4222.33"/>
    </edge>
    <edge id=":1298169255_4" function="internal">
        <lane id=":1298169255_4_0" index="0" allow="pedestrian delivery bicycle" speed="5.56" length="9.48" shape="2941.64,4218.88 2932.23,4220.07"/>
    </edge>
    <edge id=":1298169255_5" function="internal">
        <lane id=":1298169255_5_0" index="0" allow="pedestrian delivery bicycle" speed="3.65" length="4.67" shape="2941.64,4218.88 2940.37,4218.20 2939.89,4217.45 2940.21,4216.61 2941.32,4215.70"/>
    </edge>
    <edge id=":1298169255_6" function="internal">
        <lane id=":1298169255_6_0" index="0" allow="pedestrian delivery bicycle" speed="5.56" length="9.64" shape="2931.75,4216.90 2941.32,4215.70"/>
    </edge>
    <edge id=":1298169255_7" function="internal">
        <lane id=":1298169255_7_0" index="0" allow="pedestrian delivery bicycle" speed="5.56" length="10.29" shape="2931.75,4216.90 2934.56,4216.88 2936.69,4217.78 2938.15,4219.59 2938.93,4222.33"/>
    </edge>
    <edge id=":1298169255_8" function="internal">
        <lane id=":1298169255_8_0" index="0" allow="pedestrian delivery bicycle" speed="3.65" length="4.67" shape="2931.75,4216.90 2933.06,4217.51 2933.58,4218.24 2933.30,4219.09 2932.23,4220.07"/>
    </edge>
    <edge id=":1298169257_0" function="internal">
        <lane id=":1298169257_0_0" index="0" allow="pedestrian delivery bicycle" speed="5.56" length="12.73" shape="2352.61,4114.85 2349.24,4114.97 2346.34,4114.50 2343.51,4113.52 2340.39,4112.12"/>
    </edge>
    <edge id=":1298169257_1" function="internal">
        <lane id=":1298169257_1_0" index="0" allow="pedestrian delivery bicycle" speed="5.56" length="12.44" shape="2352.61,4114.85 2349.86,4114.61 2347.69,4113.17 2346.11,4110.52 2345.10,4106.66"/>
    </edge>
    <edge id=":1298169257_2" function="internal">
        <lane id=":1298169257_2_0" index="0" allow="pedestrian delivery bicycle" speed="3.65" length="4.67" shape="2352.61,4114.85 2351.32,4114.20 2350.83,4113.45 2351.13,4112.61 2352.22,4111.67"/>
    </edge>
    <edge id=":1298169257_3" function="internal">
        <lane id=":1298169257_3_0" index="0" allow="pedestrian delivery bicycle" speed="5.56" length="7.48" shape="2348.26,4106.15 2348.86,4108.70 2349.72,4110.47 2350.84,4111.46 2352.22,4111.67"/>
    </edge>
    <edge id=":1298169257_4" function="internal">
        <lane id=":1298169257_4_0" index="0" allow="pedestrian delivery bicycle" speed="5.56" length="13.99" shape="2348.26,4106.15 2348.39,4110.42 2347.12,4112.83 2344.45,4113.40 2340.39,4112.12"/>
    </edge>
    <edge id=":1298169257_5" function="internal">
        <lane id=":1298169257_5_0" index="0" allow="pedestrian delivery bicycle" speed="3.65" length="4.67" shape="2348.26,4106.15 2347.66,4107.46 2346.93,4107.99 2346.08,4107.72 2345.10,4106.66"/>
    </edge>
    <edge id=":1298169257_6" function="internal">
        <lane id=":1298169257_6_0" index="0" allow="pedestrian delivery bicycle" speed="4.66" length="5.99" shape="2341.73,4109.22 2343.47,4109.76 2344.61,4109.52 2345.16,4108.49 2345.10,4106.66"/>
    </edge>
    <edge id=":1298169257_7" function="internal">
        <lane id=":1298169257_7_0" index="0" allow="pedestrian delivery bicycle" speed="5.56" length="11.01" shape="2341.73,4109.22 2344.58,4110.57 2346.82,4111.46 2349.13,4111.84 2352.22,4111.67"/>
    </edge>
    <edge id=":1298169257_8" function="internal">
        <lane id=":1298169257_8_0" index="0" allow="pedestrian delivery bicycle" speed="3.65" length="4.67" shape="2341.73,4109.22 2342.48,4110.45 2342.51,4111.34 2341.81,4111.90 2340.39,4112.12"/>
    </edge>
    <edge id=":1298169259_0" function="internal">
        <lane id=":1298169259_0_0" index="0" allow="pedestrian delivery bicycle" speed="5.22" length="5.06" shape="2666.08,4084.35 2665.64,4083.10 2664.87,4082.25 2663.79,4081.81 2662.38,4081.76"/>
    </edge>
    <edge id=":1298169259_1" function="internal">
        <lane id=":1298169259_1_0" index="0" allow="pedestrian delivery bicycle" speed="5.56" length="9.22" shape="2666.08,4084.35 2665.57,4081.67 2665.28,4079.82 2665.09,4077.95 2664.88,4075.22"/>
    </edge>
    <edge id=":1298169259_2" function="internal">
        <lane id=":1298169259_2_0" index="0" allow="pedestrian delivery bicycle" speed="3.65" length="4.67" shape="2666.08,4084.35 2666.64,4083.02 2667.35,4082.48 2668.21,4082.72 2669.22,4083.75"/>
    </edge>
    <edge id=":1298169259_3" function="internal">
        <lane id=":1298169259_3_0" index="0" allow="pedestrian delivery bicycle" speed="5.56" length="8.84" shape="2668.08,4074.99 2668.27,4077.61 2668.45,4079.40 2668.73,4081.17 2669.22,4083.75"/>
    </edge>
    <edge id=":1298169259_4" function="internal">
        <lane id=":1298169259_4_0" index="0" allow="pedestrian delivery bicycle" speed="5.56" length="10.03" shape="2668.08,4074.99 2667.89,4077.73 2666.87,4079.76 2665.04,4081.11 2662.38,4081.76"/>
    </edge>
    <edge id=":1298169259_5" function="internal">
        <lane id=":1298169259_5_0" index="0" allow="pedestrian delivery bicycle" speed="3.65" length="4.67" shape="2668.08,4074.99 2667.36,4076.25 2666.60,4076.70 2665.77,4076.36 2664.88,4075.22"/>
    </edge>
    <edge id=":1298169259_6" function="internal">
        <lane id=":1298169259_6_0" index="0" allow="pedestrian delivery bicycle" speed="5.07" length="4.97" shape="2662.06,4078.58 2663.38,4078.25 2664.29,4077.59 2664.79,4076.58 2664.88,4075.22"/>
    </edge>
    <edge id=":1298169259_7" function="internal">
        <lane id=":1298169259_7_0" index="0" allow="pedestrian delivery bicycle" speed="5.56" length="9.88" shape="2662.06,4078.58 2664.78,4078.67 2666.87,4079.57 2668.36,4081.26 2669.22,4083.75"/>
    </edge>
    <edge id=":1298169259_8" function="internal">
        <lane id=":1298169259_8_0" index="0" allow="pedestrian delivery bicycle" speed="3.65" length="4.67" shape="2662.06,4078.58 2663.33,4079.25 2663.81,4080.01 2663.49,4080.85 2662.38,4081.76"/>
    </edge>
    <edge id=":1298169277_0" function="internal">
        <lane id=":1298169277_0_0" index="0" allow="pedestrian delivery bicycle" speed="5.56" length="9.78" shape="3003.85,4199.39 2994.15,4200.62"/>
    </edge>
    <edge id=":1298169277_1" function="internal">
        <lane id=":1298169277_1_0" index="0" allow="pedestrian delivery bicycle" speed="5.56" length="10.62" shape="3003.85,4199.39 3001.55,4199.24 2999.44,4198.22 2997.49,4196.34 2995.73,4193.59"/>
    </edge>
    <edge id=":1298169277_2" function="internal">
        <lane id=":1298169277_2_0" index="0" allow="pedestrian delivery bicycle" speed="3.65" length="4.67" shape="3003.85,4199.39 3002.56,4198.74 3002.07,4197.99 3002.37,4197.15 3003.47,4196.21"/>
    </edge>
    <edge id=":1298169277_3" function="internal">
        <lane id=":1298169277_3_0" index="0" allow="pedestrian delivery bicycle" speed="5.56" length="6.77" shape="2998.56,4192.10 2999.74,4194.01 3000.95,4195.34 3002.20,4196.07 3003.47,4196.21"/>
    </edge>
    <edge id=":1298169277_4" function="internal">
        <lane id=":1298169277_4_0" index="0" allow="pedestrian delivery bicycle" speed="5.56" length="12.14" shape="2998.56,4192.10 2999.75,4195.42 2999.41,4197.94 2997.55,4199.68 2994.15,4200.62"/>
    </edge>
    <edge id=":1298169277_5" function="internal">