<?xml version="1.0" encoding="UTF-8"?>

<!-- generated on 2021-11-30 20:33:45 by Eclipse SUMO duarouter Version 1.11.0
<configuration xmlns:xsi="http://www.w3.org/2001/XMLSchema-instance" xsi:noNamespaceSchemaLocation="http://sumo.dlr.de/xsd/duarouterConfiguration.xsd">

    <input>
        <net-file value="map.net.xml"/>
        <route-files value="trips.trips.xml"/>
    </input>

    <output>
        <output-file value="map.rou.xml"/>
        <alternatives-output value="map.rou.alt.xml"/>
    </output>

    <time>
        <begin value="0"/>
        <end value="50"/>
    </time>

    <report>
        <no-warnings value="true"/>
        <ignore-errors value="true"/>
        <no-step-log value="true"/>
    </report>

</configuration>
-->

<routes xmlns:xsi="http://www.w3.org/2001/XMLSchema-instance" xsi:noNamespaceSchemaLocation="http://sumo.dlr.de/xsd/routes_file.xsd">
    <vehicle id="0" depart="0.00">
        <route edges="306511231#1 695657841#0 695657841#1 695657841#2 695657841#3 306511217#3 306511217#4 -147249855#3 -147249855#2 -147249855#1 -147249855#0 -147249858#3"/>
    </vehicle>
    <vehicle id="1" depart="1.00">
        <route edges="-601276175 695656119#1 695656119#2 695656119#3 695656119#4 695656119#5 695656119#6 695663518#0 695663518#1 695663518#2 695663518#3 695663518#4 695663518#5 896314375#0 896314375#1 147249858#0 147249858#1 147249858#2 147249858#3 147249858#4 147249858#5 147249858#6 306511217#9 306511217#10 306511217#11 -683335230#1 -683335230#0 -683335240 -306595453#9 -306595453#8 -306595453#7 -306595453#6 -306595453#5 -306595453#4 -306595453#3 -306595453#2 -306595453#1 -306595453#0"/>
    </vehicle>
    <vehicle id="2" depart="2.00">
        <route edges="306520268 695657837 306520269#1 306595453#9 683335240 683335230#0 683335230#1 306511218#0 306511218#1 306511218#2 306511218#3 306511218#4 306511218#5 306511218#6 306511218#7 306511228 306511217#7 306511217#8 -147249858#6 -147249858#5 -147249858#4 -147249858#3 -147249858#2 -147249858#1 -147249858#0 -896314375#1 -896314375#0 -695663518#5 -695663518#4 -695663518#3 -695663518#2 -695663518#1 -695663518#0 -695656119#6 -695656119#5 -695656119#4 -306519231#1 306519231#1"/>
    </vehicle>
    <vehicle id="3" depart="3.00">
        <route edges="695656115#1 306519231#0 306519231#1 695656119#4 695656119#5 695656119#6 695663518#0 695663518#1 695663518#2 695663518#3 695663518#4 695663518#5 896314375#0 896314375#1 306519238#0 306519238#1 695657839#0 -655757797 -306511231#0 -695657842#2 -695657842#1 -695657840#1 -695657840#0 -306511230#4"/>
    </vehicle>
    <vehicle id="4" depart="4.00">
        <route edges="-695657838 695656114#1 695663518#2 695663518#3 695663518#4 695663518#5 896314375#0 896314375#1 147249858#0 147249858#1 147249858#2 147249858#3 147249858#4 147249858#5 147249858#6 -147249858#6"/>
    </vehicle>
    <vehicle id="5" depart="5.00">
        <route edges="-306520268 -306520266#1 -306520266#0 306595453#7 306595453#8 306595453#9 683335240 683335230#0 683335230#1 306511218#0 306511218#1 306511218#2 306511218#3 306511218#4 306511218#5 306511218#6 306511218#7 306511228 306511217#7 306511217#8 -147249858#6 -147249858#5 -147249858#4 -147249858#3 -147249858#2 -147249858#1 -147249858#0 -896314375#1 -896314375#0 147249859"/>
    </vehicle>
    <vehicle id="6" depart="6.00">
        <route edges="-147249858#4 147249858#4 147249858#5 147249858#6 306511217#9 306511217#10 306511217#11 -683335230#1 -683335230#0 -683335240 -306595453#9 -306520269#1 -306520269#0"/>
    </vehicle>
    <vehicle id="7" depart="7.00">
        <route edges="306511239#2 306511239#3 306511239#4 306511239#5 -306511239#5 -306511239#4 -306511239#3 -306511239#2 -306511239#1 -306511239#0 306511217#0 306511217#1 306511217#2 306511217#3 306511217#4 -147249855#3 -147249855#2 -147249855#1 -147249855#0 -147249858#3 -147249858#2 -147249858#1 -147249858#0 -896314375#1 -896314375#0 147249859"/>
    </vehicle>
    <vehicle id="8" depart="8.00">
        <route edges="-306520268 -306520266#1 -306520266#0 306595453#7 306595453#8 306595453#9 683335240 683335230#0 683335230#1 306511218#0 306511218#1 306511218#2 306511218#3 306511218#4 306511218#5 306511218#6 306511218#7 306511228 306511217#7 306511217#8 306511217#9"/>
    </vehicle>
    <vehicle id="9" depart="9.00">
        <route edges="655757777 695656119#3 695656119#4 695656119#5 695656119#6 695663518#0 695663518#1 695663518#2 695663518#3 695663518#4 695663518#5 896314375#0 896314375#1 147249858#0 147249858#1 147249858#2 147249858#3 147249855#0 147249857#1 -147249857#1"/>
    </vehicle>
    <vehicle id="10" depart="10.00">
        <route edges="306595466#0 306595466#1 -306595466#1 -306595466#0 -147285171#0 306511218#3 306511218#4 306511218#5 306511218#6 306511218#7 306511228 306511217#7 306511217#8 -147249858#6 -147249858#5 -147249858#4 -147249858#3 -147249858#2 -147249858#1 -147249858#0 -896314375#1 -896314375#0 -695663518#5 -695663518#4 -695663518#3 -695663518#2 -695663518#1 -695663518#0 306519258#0"/>
    </vehicle>
    <vehicle id="11" depart="11.00">
        <route edges="-656047830 -656047829 -656063196 -656047828#2 -656047828#1 -656047828#0 -147249858#4 -147249858#3 -147249858#2 -147249858#1 -147249858#0 -896314375#1 -896314375#0 -695663518#5 -695663518#4 -695663518#3 -695663518#2 -695663518#1 -695663518#0 306519258#0 306519258#1 306519258#2 306519258#3 306519258#4 -306519258#4"/>
    </vehicle>
    <vehicle id="12" depart="12.00">
        <route edges="695663518#3 -695663518#3 -695663518#2 -695656114#1 -695656114#0"/>
    </vehicle>
    <vehicle id="13" depart="13.00">
        <route edges="-294642399#1 294642399#1 695657839#0 -655757797 306511231#1 695657841#0 -695657841#0 -306511231#1"/>
    </vehicle>
    <vehicle id="14" depart="14.00">
        <route edges="656047828#0 -656047828#0 147249858#5 147249858#6 306511217#9 -306595457 306511218#2 306511218#3"/>
    </vehicle>
    <vehicle id="15" depart="15.00">
        <route edges="655757777 695656119#3 695656119#4 695656119#5 695656119#6 695663518#0 695663518#1 695663518#2 695663518#3 695663518#4 695663518#5 896314375#0 896314375#1 147249858#0 147249858#1 147249858#2 147249858#3 147249858#4 147249858#5 147249858#6 306511217#9 306511217#10 306511217#11 -683335230#1 -683335230#0 -683335240 -306595453#9 -306595453#8 -306595453#7 306520266#0 306520266#1 306520266#2"/>
    </vehicle>
    <vehicle id="16" depart="16.00">
        <route edges="294642399#0 294642399#1 -306519238#1 -306519238#0 -896314375#1 -896314375#0 -695663518#5 695663518#5"/>
    </vehicle>
    <vehicle id="17" depart="17.00">
        <route edges="-683335230#0 -683335240 -306595453#9 306595453#9 683335240 683335230#0 683335230#1 306511218#0 306511218#1 306511218#2 306511218#3 306511218#4 306511218#5 306511218#6 306511218#7 306511218#8 306511218#9 306511230#0 306511230#1 306511230#2 306511230#3 306511230#4 695657840#0 695657840#1 695657842#1 695657842#2 306511231#0 655757797 -695657839#0 -294642399#1 294642399#1"/>
    </vehicle>
    <vehicle id="18" depart="18.00">
        <route edges="655757864 147249858#1 147249858#2 147249858#3 147249855#0 147249855#1 147249855#2 147249855#3 306511217#5 306511237 306511218#9"/>
    </vehicle>
    <vehicle id="19" depart="19.00">
        <route edges="656047830 306595453#5 306595453#6 306595453#7 306595453#8 306595453#9 683335240 683335230#0 683335230#1 306511218#0 306511218#1 306511218#2 306511218#3 306511218#4 306511218#5 306511218#6 306511218#7 306511218#8 306511218#9 306511230#0 306511217#1 306511217#2"/>
    </vehicle>
    <vehicle id="20" depart="20.00">
        <route edges="306519268#0 306519268#1 306519268#2 695663518#4 695663518#5 896314375#0 896314375#1 306519238#0 306519238#1 -294642399#1 -294642399#0"/>
    </vehicle>
    <vehicle id="21" depart="21.00">
        <route edges="-306520269#0 -306520266#0 306595453#7 306595453#8 306595453#9 683335240 683335230#0 683335230#1 306511218#0 306511218#1 306511218#2 306511218#3 306511218#4 306511218#5 306511218#6 306511218#7 306511228 306511217#7 306511217#8 -147249858#6 -147249858#5 -147249858#4 -147249858#3 -147249858#2 -147249858#1 -655757864"/>
    </vehicle>
    <vehicle id="22" depart="22.00">
        <route edges="-147249859 896314375#0 896314375#1 147249858#0 147249858#1 147249858#2 147249858#3 147249858#4 147249858#5 147249858#6 306511217#9 306511217#10 306511217#11 -683335230#1 -683335230#0 -683335240 -306595453#9 -306595453#8 -306595453#7 -306595453#6 -306595453#5 -306595453#4 -306595453#3 -306595453#2 -306595453#1"/>
    </vehicle>
    <vehicle id="23" depart="23.00">
        <route edges="-296911081#2 -147249855#1 -147249855#0 -147249858#3 -147249858#2 -147249858#1 -147249858#0 306519238#0 -655757806"/>
    </vehicle>
    <vehicle id="24" depart="24.00">
        <route edges="306511231#1 695657841#0 -695657841#0 -306511231#1 655757797 -695657839#0 -306519238#1 -306519238#0 -896314375#1 -896314375#0 -695663518#5 -695663518#4 -695663518#3 -695663518#2 -695663518#1 -695663518#0 -695656119#6 -695656119#5 -695656119#4 -695656119#3 -695656119#2"/>
    </vehicle>
    <vehicle id="26" depart="26.00">
        <route edges="-306595466#1 -306595466#0 -147285171#0 306511218#3 306511218#4 306511218#5 306511218#6 306511218#7 306511218#8 306511218#9 306511230#0 306511230#1 306511230#2 306511230#3 306511230#4 695657840#0 695657840#1 695657842#1 695657842#2 306511231#0 655757797 695657839#1"/>
    </vehicle>
    <vehicle id="27" depart="27.00">
        <route edges="306511239#2 306511239#3 306511239#4 306511239#5 -306511239#5 -306511239#4 -306511239#3 -306511239#2 -306511239#1 -306511239#0 306511217#0 306511217#1 306511217#2 306511217#3 306511217#4 306511217#5 306511217#6 306511217#7 306511217#8 306511217#9 -306595457 306511218#2 306511218#3 306511218#4 306511218#5 306511218#6"/>
    </vehicle>
    <vehicle id="28" depart="28.00">
        <route edges="-306519238#1 -306519238#0 147249858#0 147249858#1 147249858#2 147249858#3 147249858#4 147249858#5 147249858#6 306511217#9 306511217#10 306511217#11 -683335230#1 -683335230#0 -683335240 -306595453#9 -306595453#8 -306595453#7 306520266#0 306520266#1 306520266#2"/>
    </vehicle>
    <vehicle id="29" depart="29.00">
        <route edges="-306519231#1 306519231#1 695656119#4 695656119#5 695656119#6 695663518#0 695663518#1 695663518#2 695663518#3 695663518#4 695663518#5 896314375#0 896314375#1 306519238#0 306519238#1 -294642399#1 -695657839#2"/>
    </vehicle>
    <vehicle id="30" depart="30.00">
        <route edges="967466509 -656047828#1 -656047828#0 -147249858#4 -147249858#3 -147249858#2 -147249858#1 -147249858#0 306519238#0 306519238#1 695657839#0 -655757797 306511231#1"/>
    </vehicle>
    <vehicle id="31" depart="31.00">
        <route edges="294642399#0 294642399#1 -306519238#1 306519238#1"/>
    </vehicle>
    <vehicle id="32" depart="32.00">
        <route edges="656047826#1 656047826#2 -656047826#2 -656047826#1 -656047826#0 147249858#6 306511217#9 -306595457 -147285171#1 306595466#0 306595466#1"/>
    </vehicle>
    <vehicle id="33" depart="33.00">
        <route edges="-306520269#1 306520269#1 306595453#9 683335240 683335230#0 683335230#1 306511218#0 306511218#1 306511218#2 306511218#3 306511218#4 306511218#5 306511218#6 306511218#7 306511218#8 306511218#9 306511230#0 306511230#1 306511230#2 306511230#3 306511230#4 695657840#0 695657840#1 695657842#1 695657842#2 306511231#0 655757797 -695657839#0 -294642399#1 -294642399#0"/>
    </vehicle>
    <vehicle id="34" depart="34.00">
        <route edges="-656047826#0 -147249858#5 -147249858#4 -147249858#3 -147249858#2 -147249858#1 -147249858#0 -896314375#1 -896314375#0 -695663518#5 -695663518#4 -695663518#3 -695663518#2 -695663518#1 -695663518#0 -695656119#6 -695656119#5 -695656119#4 -695656119#3 -655757777"/>
    </vehicle>
    <vehicle id="35" depart="35.00">
        <route edges="-306519292 306519231#0 306519231#1 695656119#4 695656119#5 695656119#6 695663518#0 695663518#1 695663518#2 695663518#3 695663518#4 695663518#5 896314375#0 896314375#1 306519238#0 306519238#1 695657839#0 695657839#1 695657839#2"/>
    </vehicle>
    <vehicle id="37" depart="37.00">
        <route edges="306511239#3 306511239#4 306511239#5 -306511239#5 -306511239#4 -306511239#3 -306511239#2 -306511239#1 -306511239#0 306511217#0 306511230#1 306511230#2 306511230#3 306511230#4 695657840#0 695657840#1 -695657842#0"/>
    </vehicle>
    <vehicle id="38" depart="38.00">
        <route edges="695656119#5 695656119#6 695663518#0 695663518#1 695663518#2 695663518#3 695663518#4 695663518#5 896314375#0 896314375#1 147249858#0 147249858#1 147249858#2 147249858#3 147249855#0 147249855#1"/>
    </vehicle>
    <vehicle id="39" depart="39.00">
        <route edges="-306595466#1 -306595466#0 147285171#1 306595457 306511217#10 306511217#11 -683335230#1 -683335230#0 -683335240 -306595453#9 -306595453#8 -306595453#7 -306595453#6"/>
    </vehicle>
    <vehicle id="40" depart="40.00">
        <route edges="294642399#1 -306519238#1 -306519238#0 -896314375#1 -896314375#0 -695663518#5 -695663518#4 -695663518#3 -695663518#2 -695663518#1 -695663518#0 -695656119#6 -695656119#5 -695656119#4 -695656119#3 -655757777"/>
    </vehicle>
    <vehicle id="41" depart="41.00">
        <route edges="306511217#4 -147249855#3 -147249855#2 -147249855#1 -147249855#0 -147249858#3 -147249858#2 -147249858#1 -147249858#0 -896314375#1 -896314375#0 -695663518#5 -695663518#4 -695663518#3 -695663518#2 -695656114#1 695656114#1"/>
    </vehicle>
    <vehicle id="42" depart="42.00">
        <route edges="-695656116 306519271#0 306519271#1 -695656115#0 -695656118#0 695656119#4 695656119#5 695656119#6 695663518#0 695663518#1 695663518#2 695663518#3 695663518#4 695663518#5 896314375#0 896314375#1 147249858#0 147249858#1 147249858#2 147249858#3 147249858#4 147249858#5 147249858#6 306511217#9 306511217#10 306511217#11 -683335230#1 -683335230#0 -683335240 -306595453#9 -306595453#8 -306595453#7 -306595453#6 -306595453#5 -306595453#4 -306595453#3 -306595453#2 -306595453#1 -306595453#0"/>
    </vehicle>
    <vehicle id="43" depart="43.00">
        <route edges="967466727 -147249858#1 -147249858#0 -896314375#1 -896314375#0 147249859"/>
    </vehicle>
    <vehicle id="44" depart="44.00">
        <route edges="-147249859 896314375#0 896314375#1 306519238#0 306519238#1 -294642399#1 -294642399#0"/>
    </vehicle>
    <vehicle id="45" depart="45.00">
        <route edges="-296911083#1 -296911083#0 306511218#7 306511228 306511217#7 306511217#8 306511217#9 -306595457 306511218#2 306511218#3 306511227"/>
    </vehicle>
    <vehicle id="47" depart="47.00">
        <route edges="-147249859 896314375#0 896314375#1 306519238#0 306519238#1 -294642399#1 -695657839#2"/>
    </vehicle>
    <vehicle id="48" depart="48.00">
        <route edges="967466510#1 -656047828#0 -147249858#4 -147249858#3 -147249858#2 -147249858#1 -147249858#0 -896314375#1 -896314375#0 147249859"/>
    </vehicle>
    <vehicle id="49" depart="49.00">
        <route edges="936657840 656047832#1"/>
    </vehicle>
</routes>
